14
SLF
C 4.186 5.118 6.729
C 6.996 7.764 6.781
C 4.206 7.949 9.427
C 4.57109200943 6.52077478222 9.14457774084
C 5.15548029016 5.83002780972 7.49621048012
C 5.95086871112 7.35538995426 7.79818797942
C 8.918 6.811 4.939
C 6.16507751012 6.15538352681 8.95010032665
C 8.04386824418 7.86617496551 5.30039883687
C 6.869 5.099 9.569
C 6.89719183073 9.06640128135 5.84543197201
C 8.087 8.788 6.785
C 8.939 9.626 7.653
C 6.245 9.653 4.817
14
SLF
C 4.186 5.118 6.729
C 6.996 7.764 6.781
C 4.206 7.949 9.427
C 5.043 7.038 8.622
C 5.036 5.961 7.593
C 6.130 6.982 7.595
C 8.918 6.811 4.939
C 6.060 5.952 8.676
C 8.080 7.716 5.752
C 6.869 5.099 9.569
C 7.060 8.800 5.705
C 8.087 8.788 6.785
C 8.939 9.626 7.653
C 6.245 9.653 4.817
14
SLF
C 4.186 5.118 6.729
C 6.996 7.764 6.781
C 4.206 7.949 9.427
C 5.043 7.038 8.622
C 5.036 5.961 7.593
C 6.130 6.982 7.595
C 8.918 6.811 4.939
C 6.060 5.952 8.676
C 8.41227094168 7.75704332873 5.72626066805
C 6.869 5.099 9.569
C 7.060 8.800 5.705
C 8.087 8.788 6.785
C 8.939 9.626 7.653
C 6.245 9.653 4.817
14
SLF
C 4.186 5.118 6.729
C 6.996 7.764 6.781
C 4.206 7.949 9.427
C 5.043 7.038 8.622
C 5.036 5.961 7.593
C 6.130 6.982 7.595
C 8.918 6.811 4.939
C 6.060 5.952 8.676
C 8.41227094168 7.75704332873 5.72626066805
C 6.869 5.099 9.569
C 7.060 8.800 5.705
C 8.25201327517 8.68901514767 6.9995719074
C 8.939 9.626 7.653
C 6.245 9.653 4.817
14
SLF
C 4.186 5.118 6.729
C 6.996 7.764 6.781
C 4.206 7.949 9.427
C 5.043 7.038 8.622
C 5.20451432377 5.81253131893 7.32968045379
C 6.130 6.982 7.595
C 8.918 6.811 4.939
C 6.060 5.952 8.676
C 8.41227094168 7.75704332873 5.72626066805
C 6.869 5.099 9.569
C 7.060 8.800 5.705
C 8.25201327517 8.68901514767 6.9995719074
C 8.939 9.626 7.653
C 6.245 9.653 4.817
14
SLF
C 4.186 5.118 6.729
C 6.996 7.764 6.781
C 4.206 7.949 9.427
C 5.043 7.038 8.622
C 5.20451432377 5.81253131893 7.32968045379
C 6.130 6.982 7.595
C 8.918 6.811 4.939
C 6.060 5.952 8.676
C 8.41227094168 7.75704332873 5.72626066805
C 6.869 5.099 9.569
C 7.23823876641 9.24995024369 5.75751330112
C 8.25201327517 8.68901514767 6.9995719074
C 8.939 9.626 7.653
C 6.245 9.653 4.817
14
SLF
C 4.186 5.118 6.729
C 6.996 7.764 6.781
C 4.206 7.949 9.427
C 4.72062377726 6.87443454023 8.71211731921
C 5.20451432377 5.81253131893 7.32968045379
C 6.130 6.982 7.595
C 8.918 6.811 4.939
C 6.060 5.952 8.676
C 8.41227094168 7.75704332873 5.72626066805
C 6.869 5.099 9.569
C 7.23823876641 9.24995024369 5.75751330112
C 8.25201327517 8.68901514767 6.9995719074
C 8.939 9.626 7.653
C 6.245 9.653 4.817
14
SLF
C 4.186 5.118 6.729
C 6.7231554122 7.79551114068 6.51028513915
C 4.206 7.949 9.427
C 4.72062377726 6.87443454023 8.71211731921
C 5.20451432377 5.81253131893 7.32968045379
C 6.130 6.982 7.595
C 8.918 6.811 4.939
C 6.060 5.952 8.676
C 8.41227094168 7.75704332873 5.72626066805
C 6.869 5.099 9.569
C 7.23823876641 9.24995024369 5.75751330112
C 8.25201327517 8.68901514767 6.9995719074
C 8.939 9.626 7.653
C 6.245 9.653 4.817
14
SLF
C 4.186 5.118 6.729
C 6.7231554122 7.79551114068 6.51028513915
C 4.206 7.949 9.427
C 4.72062377726 6.87443454023 8.71211731921
C 5.20451432377 5.81253131893 7.32968045379
C 6.130 6.982 7.595
C 8.918 6.811 4.939
C 5.95157168979 5.82325713446 8.86789563316
C 8.41227094168 7.75704332873 5.72626066805
C 6.869 5.099 9.569
C 7.23823876641 9.24995024369 5.75751330112
C 8.25201327517 8.68901514767 6.9995719074
C 8.939 9.626 7.653
C 6.245 9.653 4.817
14
SLF
C 4.186 5.118 6.729
C 6.7231554122 7.79551114068 6.51028513915
C 4.206 7.949 9.427
C 4.72062377726 6.87443454023 8.71211731921
C 5.20451432377 5.81253131893 7.32968045379
C 6.130 6.982 7.595
C 8.918 6.811 4.939
C 5.95157168979 5.82325713446 8.86789563316
C 8.19426073601 7.93470505897 5.27583933424
C 6.869 5.099 9.569
C 7.23823876641 9.24995024369 5.75751330112
C 8.25201327517 8.68901514767 6.9995719074
C 8.939 9.626 7.653
C 6.245 9.653 4.817
14
SLF
C 4.186 5.118 6.729
C 6.7231554122 7.79551114068 6.51028513915
C 4.206 7.949 9.427
C 4.72062377726 6.87443454023 8.71211731921
C 5.20451432377 5.81253131893 7.32968045379
C 6.130 6.982 7.595
C 8.918 6.811 4.939
C 5.95157168979 5.82325713446 8.86789563316
C 8.19426073601 7.93470505897 5.27583933424
C 6.869 5.099 9.569
C 7.23823876641 9.24995024369 5.75751330112
C 8.21746226145 8.53665133552 7.05337849338
C 8.939 9.626 7.653
C 6.245 9.653 4.817
14
SLF
C 4.186 5.118 6.729
C 6.7231554122 7.79551114068 6.51028513915
C 4.206 7.949 9.427
C 4.72062377726 6.87443454023 8.71211731921
C 5.20451432377 5.81253131893 7.32968045379
C 6.17885050878 7.24090582394 7.85582641915
C 8.918 6.811 4.939
C 5.95157168979 5.82325713446 8.86789563316
C 8.19426073601 7.93470505897 5.27583933424
C 6.869 5.099 9.569
C 7.23823876641 9.24995024369 5.75751330112
C 8.21746226145 8.53665133552 7.05337849338
C 8.939 9.626 7.653
C 6.245 9.653 4.817
14
SLF
C 4.186 5.118 6.729
C 6.7231554122 7.79551114068 6.51028513915
C 4.206 7.949 9.427
C 4.72062377726 6.87443454023 8.71211731921
C 5.47008702177 5.30449829954 7.11092936226
C 6.17885050878 7.24090582394 7.85582641915
C 8.918 6.811 4.939
C 5.95157168979 5.82325713446 8.86789563316
C 8.19426073601 7.93470505897 5.27583933424
C 6.869 5.099 9.569
C 7.23823876641 9.24995024369 5.75751330112
C 8.21746226145 8.53665133552 7.05337849338
C 8.939 9.626 7.653
C 6.245 9.653 4.817
14
SLF
C 4.186 5.118 6.729
C 6.7231554122 7.79551114068 6.51028513915
C 4.206 7.949 9.427
C 4.72062377726 6.87443454023 8.71211731921
C 5.47008702177 5.30449829954 7.11092936226
C 6.17885050878 7.24090582394 7.85582641915
C 8.918 6.811 4.939
C 5.95157168979 5.82325713446 8.86789563316
C 8.19426073601 7.93470505897 5.27583933424
C 6.869 5.099 9.569
C 7.43578207796 9.68557684635 5.67631602381
C 8.21746226145 8.53665133552 7.05337849338
C 8.939 9.626 7.653
C 6.245 9.653 4.817
14
SLF
C 4.186 5.118 6.729
C 6.42954193875 7.70372255812 6.06003761639
C 4.206 7.949 9.427
C 4.72062377726 6.87443454023 8.71211731921
C 5.47008702177 5.30449829954 7.11092936226
C 6.17885050878 7.24090582394 7.85582641915
C 8.918 6.811 4.939
C 5.95157168979 5.82325713446 8.86789563316
C 8.19426073601 7.93470505897 5.27583933424
C 6.869 5.099 9.569
C 7.43578207796 9.68557684635 5.67631602381
C 8.21746226145 8.53665133552 7.05337849338
C 8.939 9.626 7.653
C 6.245 9.653 4.817
14
SLF
C 4.186 5.118 6.729
C 6.42954193875 7.70372255812 6.06003761639
C 4.206 7.949 9.427
C 4.72062377726 6.87443454023 8.71211731921
C 5.47008702177 5.30449829954 7.11092936226
C 6.17885050878 7.24090582394 7.85582641915
C 8.918 6.811 4.939
C 5.9658722169 5.76996675009 8.90118430151
C 8.19426073601 7.93470505897 5.27583933424
C 6.869 5.099 9.569
C 7.43578207796 9.68557684635 5.67631602381
C 8.21746226145 8.53665133552 7.05337849338
C 8.939 9.626 7.653
C 6.245 9.653 4.817
14
SLF
C 4.186 5.118 6.729
C 6.42954193875 7.70372255812 6.06003761639
C 4.206 7.949 9.427
C 4.43533274703 6.71032354183 8.42340133316
C 5.47008702177 5.30449829954 7.11092936226
C 6.17885050878 7.24090582394 7.85582641915
C 8.918 6.811 4.939
C 5.9658722169 5.76996675009 8.90118430151
C 8.19426073601 7.93470505897 5.27583933424
C 6.869 5.099 9.569
C 7.43578207796 9.68557684635 5.67631602381
C 8.21746226145 8.53665133552 7.05337849338
C 8.939 9.626 7.653
C 6.245 9.653 4.817
14
SLF
C 4.186 5.118 6.729
C 6.42954193875 7.70372255812 6.06003761639
C 4.206 7.949 9.427
C 4.43533274703 6.71032354183 8.42340133316
C 5.47008702177 5.30449829954 7.11092936226
C 6.17885050878 7.24090582394 7.85582641915
C 8.918 6.811 4.939
C 5.9658722169 5.76996675009 8.90118430151
C 8.22847733306 7.7727471288 5.26133672731
C 6.869 5.099 9.569
C 7.43578207796 9.68557684635 5.67631602381
C 8.21746226145 8.53665133552 7.05337849338
C 8.939 9.626 7.653
C 6.245 9.653 4.817
14
SLF
C 4.186 5.118 6.729
C 6.42954193875 7.70372255812 6.06003761639
C 4.206 7.949 9.427
C 4.43533274703 6.71032354183 8.42340133316
C 5.47008702177 5.30449829954 7.11092936226
C 6.17885050878 7.24090582394 7.85582641915
C 8.918 6.811 4.939
C 5.9658722169 5.76996675009 8.90118430151
C 8.22847733306 7.7727471288 5.26133672731
C 6.869 5.099 9.569
C 7.43578207796 9.68557684635 5.67631602381
C 8.17308549984 8.56899679467 7.07829353229
C 8.939 9.626 7.653
C 6.245 9.653 4.817
14
SLF
C 4.186 5.118 6.729
C 6.42954193875 7.70372255812 6.06003761639
C 4.206 7.949 9.427
C 4.43533274703 6.71032354183 8.42340133316
C 5.53075545816 5.30575515392 7.08840292194
C 6.17885050878 7.24090582394 7.85582641915
C 8.918 6.811 4.939
C 5.9658722169 5.76996675009 8.90118430151
C 8.22847733306 7.7727471288 5.26133672731
C 6.869 5.099 9.569
C 7.43578207796 9.68557684635 5.67631602381
C 8.17308549984 8.56899679467 7.07829353229
C 8.939 9.626 7.653
C 6.245 9.653 4.817
14
SLF
C 4.186 5.118 6.729
C 6.42954193875 7.70372255812 6.06003761639
C 4.206 7.949 9.427
C 4.43533274703 6.71032354183 8.42340133316
C 5.53075545816 5.30575515392 7.08840292194
C 6.17885050878 7.24090582394 7.85582641915
C 8.918 6.811 4.939
C 5.9658722169 5.76996675009 8.90118430151
C 8.22847733306 7.7727471288 5.26133672731
C 6.869 5.099 9.569
C 7.58742332598 9.82432790333 5.74596712893
C 8.17308549984 8.56899679467 7.07829353229
C 8.939 9.626 7.653
C 6.245 9.653 4.817
14
SLF
C 4.186 5.118 6.729
C 6.42954193875 7.70372255812 6.06003761639
C 4.206 7.949 9.427
C 4.43533274703 6.71032354183 8.42340133316
C 5.53075545816 5.30575515392 7.08840292194
C 6.39921893995 7.38301379847 7.9556331181
C 8.918 6.811 4.939
C 5.9658722169 5.76996675009 8.90118430151
C 8.22847733306 7.7727471288 5.26133672731
C 6.869 5.099 9.569
C 7.58742332598 9.82432790333 5.74596712893
C 8.17308549984 8.56899679467 7.07829353229
C 8.939 9.626 7.653
C 6.245 9.653 4.817
14
SLF
C 4.186 5.118 6.729
C 6.44121508341 7.70608052458 6.06333932705
C 4.206 7.949 9.427
C 4.43533274703 6.71032354183 8.42340133316
C 5.53075545816 5.30575515392 7.08840292194
C 6.39921893995 7.38301379847 7.9556331181
C 8.918 6.811 4.939
C 5.9658722169 5.76996675009 8.90118430151
C 8.22847733306 7.7727471288 5.26133672731
C 6.869 5.099 9.569
C 7.58742332598 9.82432790333 5.74596712893
C 8.17308549984 8.56899679467 7.07829353229
C 8.939 9.626 7.653
C 6.245 9.653 4.817
14
SLF
C 4.186 5.118 6.729
C 6.44121508341 7.70608052458 6.06333932705
C 4.206 7.949 9.427
C 4.2585467846 6.59281098184 8.57664920006
C 5.53075545816 5.30575515392 7.08840292194
C 6.39921893995 7.38301379847 7.9556331181
C 8.918 6.811 4.939
C 5.9658722169 5.76996675009 8.90118430151
C 8.22847733306 7.7727471288 5.26133672731
C 6.869 5.099 9.569
C 7.58742332598 9.82432790333 5.74596712893
C 8.17308549984 8.56899679467 7.07829353229
C 8.939 9.626 7.653
C 6.245 9.653 4.817
14
SLF
C 4.186 5.118 6.729
C 6.44121508341 7.70608052458 6.06333932705
C 4.206 7.949 9.427
C 4.2585467846 6.59281098184 8.57664920006
C 5.53075545816 5.30575515392 7.08840292194
C 6.39921893995 7.38301379847 7.9556331181
C 8.918 6.811 4.939
C 5.9658722169 5.76996675009 8.90118430151
C 8.17126385389 7.84631529044 5.26371423524
C 6.869 5.099 9.569
C 7.58742332598 9.82432790333 5.74596712893
C 8.17308549984 8.56899679467 7.07829353229
C 8.939 9.626 7.653
C 6.245 9.653 4.817
14
SLF
C 4.186 5.118 6.729
C 6.44121508341 7.70608052458 6.06333932705
C 4.206 7.949 9.427
C 4.2585467846 6.59281098184 8.57664920006
C 5.53075545816 5.30575515392 7.08840292194
C 6.39921893995 7.38301379847 7.9556331181
C 8.918 6.811 4.939
C 5.93687354766 5.76449313304 8.88486640628
C 8.17126385389 7.84631529044 5.26371423524
C 6.869 5.099 9.569
C 7.58742332598 9.82432790333 5.74596712893
C 8.17308549984 8.56899679467 7.07829353229
C 8.939 9.626 7.653
C 6.245 9.653 4.817
14
SLF
C 4.186 5.118 6.729
C 6.44121508341 7.70608052458 6.06333932705
C 4.206 7.949 9.427
C 4.2585467846 6.59281098184 8.57664920006
C 5.8109523093 5.04681764474 7.11083650646
C 6.39921893995 7.38301379847 7.9556331181
C 8.918 6.811 4.939
C 5.93687354766 5.76449313304 8.88486640628
C 8.17126385389 7.84631529044 5.26371423524
C 6.869 5.099 9.569
C 7.58742332598 9.82432790333 5.74596712893
C 8.17308549984 8.56899679467 7.07829353229
C 8.939 9.626 7.653
C 6.245 9.653 4.817
14
SLF
C 4.186 5.118 6.729
C 6.44121508341 7.70608052458 6.06333932705
C 4.206 7.949 9.427
C 4.2585467846 6.59281098184 8.57664920006
C 5.8109523093 5.04681764474 7.11083650646
C 6.39921893995 7.38301379847 7.9556331181
C 8.918 6.811 4.939
C 5.93687354766 5.76449313304 8.88486640628
C 8.17126385389 7.84631529044 5.26371423524
C 6.869 5.099 9.569
C 7.54566687802 9.84477344081 5.78430989975
C 8.17308549984 8.56899679467 7.07829353229
C 8.939 9.626 7.653
C 6.245 9.653 4.817
14
SLF
C 4.186 5.118 6.729
C 6.44121508341 7.70608052458 6.06333932705
C 4.206 7.949 9.427
C 4.2585467846 6.59281098184 8.57664920006
C 5.8109523093 5.04681764474 7.11083650646
C 6.39921893995 7.38301379847 7.9556331181
C 8.918 6.811 4.939
C 5.93687354766 5.76449313304 8.88486640628
C 8.17126385389 7.84631529044 5.26371423524
C 6.869 5.099 9.569
C 7.54566687802 9.84477344081 5.78430989975
C 8.17818256508 8.53163363185 7.05917458898
C 8.939 9.626 7.653
C 6.245 9.653 4.817
14
SLF
C 4.186 5.118 6.729
C 6.44121508341 7.70608052458 6.06333932705
C 4.206 7.949 9.427
C 4.2585467846 6.59281098184 8.57664920006
C 5.8109523093 5.04681764474 7.11083650646
C 6.56804792771 7.32902217546 7.93573983306
C 8.918 6.811 4.939
C 5.93687354766 5.76449313304 8.88486640628
C 8.17126385389 7.84631529044 5.26371423524
C 6.869 5.099 9.569
C 7.54566687802 9.84477344081 5.78430989975
C 8.17818256508 8.53163363185 7.05917458898
C 8.939 9.626 7.653
C 6.245 9.653 4.817
14
SLF
C 4.186 5.118 6.729
C 6.44121508341 7.70608052458 6.06333932705
C 4.206 7.949 9.427
C 4.14565146254 6.50453057948 8.66899103938
C 5.8109523093 5.04681764474 7.11083650646
C 6.56804792771 7.32902217546 7.93573983306
C 8.918 6.811 4.939
C 5.93687354766 5.76449313304 8.88486640628
C 8.17126385389 7.84631529044 5.26371423524
C 6.869 5.099 9.569
C 7.54566687802 9.84477344081 5.78430989975
C 8.17818256508 8.53163363185 7.05917458898
C 8.939 9.626 7.653
C 6.245 9.653 4.817
14
SLF
C 4.186 5.118 6.729
C 6.40242540288 7.70163132134 6.04261212035
C 4.206 7.949 9.427
C 4.14565146254 6.50453057948 8.66899103938
C 5.8109523093 5.04681764474 7.11083650646
C 6.56804792771 7.32902217546 7.93573983306
C 8.918 6.811 4.939
C 5.93687354766 5.76449313304 8.88486640628
C 8.17126385389 7.84631529044 5.26371423524
C 6.869 5.099 9.569
C 7.54566687802 9.84477344081 5.78430989975
C 8.17818256508 8.53163363185 7.05917458898
C 8.939 9.626 7.653
C 6.245 9.653 4.817
14
SLF
C 4.186 5.118 6.729
C 6.40242540288 7.70163132134 6.04261212035
C 4.206 7.949 9.427
C 4.14565146254 6.50453057948 8.66899103938
C 5.8109523093 5.04681764474 7.11083650646
C 6.56804792771 7.32902217546 7.93573983306
C 8.918 6.811 4.939
C 5.93687354766 5.76449313304 8.88486640628
C 8.11375661495 7.89182800587 5.21082589991
C 6.869 5.099 9.569
C 7.54566687802 9.84477344081 5.78430989975
C 8.17818256508 8.53163363185 7.05917458898
C 8.939 9.626 7.653
C 6.245 9.653 4.817
14
SLF
C 4.186 5.118 6.729
C 6.40242540288 7.70163132134 6.04261212035
C 4.206 7.949 9.427
C 4.14565146254 6.50453057948 8.66899103938
C 5.73214790222 4.9744040531 7.16581733137
C 6.56804792771 7.32902217546 7.93573983306
C 8.918 6.811 4.939
C 5.93687354766 5.76449313304 8.88486640628
C 8.11375661495 7.89182800587 5.21082589991
C 6.869 5.099 9.569
C 7.54566687802 9.84477344081 5.78430989975
C 8.17818256508 8.53163363185 7.05917458898
C 8.939 9.626 7.653
C 6.245 9.653 4.817
14
SLF
C 4.186 5.118 6.729
C 6.40242540288 7.70163132134 6.04261212035
C 4.206 7.949 9.427
C 4.14565146254 6.50453057948 8.66899103938
C 5.73214790222 4.9744040531 7.16581733137
C 6.56804792771 7.32902217546 7.93573983306
C 8.918 6.811 4.939
C 5.93687354766 5.76449313304 8.88486640628
C 8.11375661495 7.89182800587 5.21082589991
C 6.869 5.099 9.569
C 7.53520889495 9.85818044672 5.82090630897
C 8.17818256508 8.53163363185 7.05917458898
C 8.939 9.626 7.653
C 6.245 9.653 4.817
14
SLF
C 4.186 5.118 6.729
C 6.40242540288 7.70163132134 6.04261212035
C 4.206 7.949 9.427
C 4.14565146254 6.50453057948 8.66899103938
C 5.73214790222 4.9744040531 7.16581733137
C 6.56804792771 7.32902217546 7.93573983306
C 8.918 6.811 4.939
C 5.92164533424 5.77840707394 8.87603703689
C 8.11375661495 7.89182800587 5.21082589991
C 6.869 5.099 9.569
C 7.53520889495 9.85818044672 5.82090630897
C 8.17818256508 8.53163363185 7.05917458898
C 8.939 9.626 7.653
C 6.245 9.653 4.817
14
SLF
C 4.186 5.118 6.729
C 6.40242540288 7.70163132134 6.04261212035
C 4.206 7.949 9.427
C 4.14565146254 6.50453057948 8.66899103938
C 5.73214790222 4.9744040531 7.16581733137
C 6.60484946913 7.34494001524 7.9286252606
C 8.918 6.811 4.939
C 5.92164533424 5.77840707394 8.87603703689
C 8.11375661495 7.89182800587 5.21082589991
C 6.869 5.099 9.569
C 7.53520889495 9.85818044672 5.82090630897
C 8.17818256508 8.53163363185 7.05917458898
C 8.939 9.626 7.653
C 6.245 9.653 4.817
14
SLF
C 4.186 5.118 6.729
C 6.40242540288 7.70163132134 6.04261212035
C 4.206 7.949 9.427
C 4.14565146254 6.50453057948 8.66899103938
C 5.73214790222 4.9744040531 7.16581733137
C 6.60484946913 7.34494001524 7.9286252606
C 8.918 6.811 4.939
C 5.92164533424 5.77840707394 8.87603703689
C 8.11375661495 7.89182800587 5.21082589991
C 6.869 5.099 9.569
C 7.53520889495 9.85818044672 5.82090630897
C 7.97396969454 8.59552473201 7.22663026955
C 8.939 9.626 7.653
C 6.245 9.653 4.817
14
SLF
C 4.186 5.118 6.729
C 6.40242540288 7.70163132134 6.04261212035
C 4.206 7.949 9.427
C 4.07556224224 6.29740416525 9.11123820965
C 5.73214790222 4.9744040531 7.16581733137
C 6.60484946913 7.34494001524 7.9286252606
C 8.918 6.811 4.939
C 5.92164533424 5.77840707394 8.87603703689
C 8.11375661495 7.89182800587 5.21082589991
C 6.869 5.099 9.569
C 7.53520889495 9.85818044672 5.82090630897
C 7.97396969454 8.59552473201 7.22663026955
C 8.939 9.626 7.653
C 6.245 9.653 4.817
14
SLF
C 4.186 5.118 6.729
C 6.40242540288 7.70163132134 6.04261212035
C 4.206 7.949 9.427
C 4.07556224224 6.29740416525 9.11123820965
C 5.73214790222 4.9744040531 7.16581733137
C 6.60484946913 7.34494001524 7.9286252606
C 8.918 6.811 4.939
C 5.92164533424 5.77840707394 8.87603703689
C 8.09371206969 7.92653037174 5.18620233868
C 6.869 5.099 9.569
C 7.53520889495 9.85818044672 5.82090630897
C 7.97396969454 8.59552473201 7.22663026955
C 8.939 9.626 7.653
C 6.245 9.653 4.817
